/Volumes/OpenFOAM-v2406/bin/tools/RunFunctions: line 295: rhoPimpleCentralFoam: command not found
